xflr5 v6.62

 Calculated polar for: naca 23012

 1 1 Reynolds number fixed          Mach number fixed         

 xtrf =   1.000 (top)        1.000 (bottom)
 Mach =   0.100     Re =     1.000 e 6     Ncrit =   9.000

  alpha     CL        CD       CDp       Cm    Top Xtr Bot Xtr   Cpmin    Chinge    XCp    
 ------- -------- --------- --------- -------- ------- ------- -------- --------- ---------
  -4.000  -0.2920   0.00932   0.00354  -0.0166  0.8817  0.0300  -2.4920   0.0000   0.0000   0.0000   0.1866
  -3.500  -0.2397   0.00895   0.00303  -0.0154  0.8405  0.0334  -2.1596   0.0000   0.0000   0.0000   0.1791
  -3.000  -0.1863   0.00871   0.00264  -0.0145  0.7929  0.0382  -1.8503   0.0000   0.0000   0.0000   0.1654
  -2.500  -0.1325   0.00854   0.00230  -0.0137  0.7413  0.0444  -1.5707   0.0000   0.0000   0.0000   0.1393
  -1.500  -0.0241   0.00834   0.00182  -0.0125  0.6321  0.0726  -1.0577   0.0000   0.0000   0.0000  -0.2863
  -1.000   0.0231   0.00713   0.00145  -0.0113  0.5799  0.3702  -0.8537   0.0000   0.0000   0.0000   0.7454
  -0.500   0.0714   0.00639   0.00133  -0.0099  0.5271  0.6067  -0.6602   0.0000   0.0000   0.0000   0.3880
   0.000   0.1226   0.00620   0.00134  -0.0088  0.4736  0.7293  -0.7074   0.0000   0.0000   0.0000   0.3187
   1.000   0.2264   0.00635   0.00154  -0.0064  0.3724  0.8764  -0.8518   0.0000   0.0000   0.0000   0.2740
   1.500   0.2775   0.00660   0.00172  -0.0048  0.3292  0.9258  -0.9278   0.0000   0.0000   0.0000   0.2627
   2.000   0.3310   0.00692   0.00189  -0.0039  0.2932  0.9491  -1.0090   0.0000   0.0000   0.0000   0.2570
   2.500   0.3872   0.00723   0.00207  -0.0037  0.2671  0.9661  -1.0966   0.0000   0.0000   0.0000   0.2544
   3.000   0.4492   0.00757   0.00228  -0.0049  0.2479  0.9775  -1.1923   0.0000   0.0000   0.0000   0.2553
   3.500   0.5176   0.00788   0.00250  -0.0075  0.2332  0.9841  -1.3004   0.0000   0.0000   0.0000   0.2587
   4.000   0.5885   0.00820   0.00274  -0.0108  0.2214  0.9886  -1.4165   0.0000   0.0000   0.0000   0.2622
   4.500   0.6588   0.00851   0.00299  -0.0140  0.2113  0.9930  -1.5382   0.0000   0.0000   0.0000   0.2646
   5.000   0.7304   0.00882   0.00325  -0.0175  0.2021  0.9960  -1.6689   0.0000   0.0000   0.0000   0.2670
   5.500   0.8011   0.00915   0.00353  -0.0208  0.1933  0.9991  -1.8076   0.0000   0.0000   0.0000   0.2686
   6.000   0.8560   0.00940   0.00378  -0.0208  0.1860  1.0000  -1.9367   0.0000   0.0000   0.0000   0.2664
   6.500   0.9023   0.00968   0.00407  -0.0189  0.1794  1.0000  -2.0640   0.0000   0.0000   0.0000   0.2625
   7.000   0.9481   0.01003   0.00440  -0.0169  0.1725  1.0000  -2.2019   0.0000   0.0000   0.0000   0.2588
   7.500   0.9950   0.01035   0.00473  -0.0152  0.1656  1.0000  -2.3614   0.0000   0.0000   0.0000   0.2556
   8.000   1.0423   0.01070   0.00511  -0.0135  0.1585  1.0000  -2.5674   0.0000   0.0000   0.0000   0.2527
   8.500   1.0898   0.01109   0.00551  -0.0119  0.1506  1.0000  -2.8214   0.0000   0.0000   0.0000   0.2500
   9.000   1.1377   0.01152   0.00595  -0.0105  0.1419  1.0000  -3.1105   0.0000   0.0000   0.0000   0.2476
   9.500   1.1862   0.01200   0.00643  -0.0092  0.1328  1.0000  -3.4264   0.0000   0.0000   0.0000   0.2455
  10.000   1.2348   0.01253   0.00697  -0.0081  0.1232  1.0000  -3.7795   0.0000   0.0000   0.0000   0.2435
  10.500   1.2828   0.01314   0.00759  -0.0070  0.1126  1.0000  -4.1438   0.0000   0.0000   0.0000   0.2416
  11.500   1.3741   0.01475   0.00918  -0.0043  0.0872  1.0000  -4.9487   0.0000   0.0000   0.0000   0.2377
  12.000   1.4158   0.01583   0.01023  -0.0025  0.0727  1.0000  -5.3552   0.0000   0.0000   0.0000   0.2355
  12.500   1.4530   0.01718   0.01154  -0.0002  0.0579  1.0000  -5.7675   0.0000   0.0000   0.0000   0.2330
  13.000   1.4860   0.01870   0.01305   0.0026  0.0450  1.0000  -6.1867   0.0000   0.0000   0.0000   0.2303
  13.500   1.5110   0.02038   0.01475   0.0065  0.0361  1.0000  -6.5760   0.0000   0.0000   0.0000   0.2269
  14.000   1.5306   0.02223   0.01668   0.0107  0.0302  1.0000  -6.9445   0.0000   0.0000   0.0000   0.2232


