xflr5 v6.62

 Calculated polar for: NACA 64A210

 1 1 Reynolds number fixed          Mach number fixed         

 xtrf =   1.000 (top)        1.000 (bottom)
 Mach =   0.100     Re =     1.000 e 6     Ncrit =   9.000

  alpha     CL        CD       CDp       Cm    Top Xtr Bot Xtr   Cpmin    Chinge    XCp    
 ------- -------- --------- --------- -------- ------- ------- -------- --------- ---------
  -4.000  -0.2340   0.00886   0.00337  -0.0464  0.8952  0.0180  -2.0636   0.0000   0.0000   0.0000   0.0473
  -3.500  -0.1820   0.00823   0.00260  -0.0456  0.8830  0.0178  -1.8288   0.0000   0.0000   0.0000  -0.0053
  -3.000  -0.1293   0.00784   0.00202  -0.0450  0.8630  0.0181  -1.5853   0.0000   0.0000   0.0000  -0.1032
  -2.500  -0.0747   0.00755   0.00164  -0.0448  0.8472  0.0208  -1.3544   0.0000   0.0000   0.0000  -0.3575
  -2.000  -0.0248   0.00654   0.00125  -0.0442  0.8338  0.1850  -1.1383   0.0000   0.0000   0.0000  -1.5495
  -1.500   0.0198   0.00517   0.00096  -0.0429  0.8106  0.5259  -0.8961   0.0000   0.0000   0.0000   2.4338
  -1.000   0.0734   0.00497   0.00093  -0.0427  0.7944  0.5984  -0.6371   0.0000   0.0000   0.0000   0.8335
  -0.500   0.1265   0.00483   0.00093  -0.0423  0.7747  0.6622  -0.3953   0.0000   0.0000   0.0000   0.5844
   0.000   0.1791   0.00485   0.00091  -0.0416  0.7351  0.6962  -0.4119   0.0000   0.0000   0.0000   0.4820
   0.500   0.2314   0.00491   0.00092  -0.0410  0.6951  0.7279  -0.4377   0.0000   0.0000   0.0000   0.4264
   1.000   0.2841   0.00494   0.00097  -0.0405  0.6678  0.7701  -0.4749   0.0000   0.0000   0.0000   0.3913
   1.500   0.3363   0.00508   0.00102  -0.0399  0.6229  0.7961  -0.7387   0.0000   0.0000   0.0000   0.3671
   2.000   0.3865   0.00538   0.00111  -0.0390  0.5483  0.8238  -1.0153   0.0000   0.0000   0.0000   0.3490
   3.000   0.4692   0.00835   0.00228  -0.0349  0.0445  0.9353  -1.5333   0.0000   0.0000   0.0000   0.3218
   3.500   0.5439   0.00897   0.00279  -0.0395  0.0143  0.9862  -1.8284   0.0000   0.0000   0.0000   0.3197
   4.000   0.6114   0.00952   0.00342  -0.0424  0.0139  0.9998  -2.1449   0.0000   0.0000   0.0000   0.3161
   4.500   0.6567   0.01013   0.00412  -0.0405  0.0140  1.0000  -2.4183   0.0000   0.0000   0.0000   0.3080
   5.000   0.7006   0.01090   0.00497  -0.0383  0.0143  1.0000  -2.6949   0.0000   0.0000   0.0000   0.3006
   5.500   0.7448   0.01190   0.00609  -0.0362  0.0147  1.0000  -2.9691   0.0000   0.0000   0.0000   0.2942
   6.000   0.7956   0.01216   0.00634  -0.0362  0.0081  1.0000  -3.8328   0.0000   0.0000   0.0000   0.2905
   6.500   0.8398   0.01341   0.00766  -0.0346  0.0066  1.0000  -4.2999   0.0000   0.0000   0.0000   0.2857
   7.000   0.8913   0.01374   0.00794  -0.0344  0.0062  1.0000  -4.9246   0.0000   0.0000   0.0000   0.2826
   7.500   0.9411   0.01430   0.00849  -0.0339  0.0056  1.0000  -5.5626   0.0000   0.0000   0.0000   0.2794
   8.000   0.9903   0.01493   0.00901  -0.0335  0.0044  1.0000  -6.5509   0.0000   0.0000   0.0000   0.2766
   8.500   1.0308   0.01680   0.01108  -0.0314  0.0042  1.0000  -7.1047   0.0000   0.0000   0.0000   0.2726


