xflr5 v6.62

 Calculated polar for: NACA 4412

 1 1 Reynolds number fixed          Mach number fixed         

 xtrf =   1.000 (top)        1.000 (bottom)
 Mach =   0.100     Re =     1.000 e 6     Ncrit =   9.000

  alpha     CL        CD       CDp       Cm    Top Xtr Bot Xtr   Cpmin    Chinge    XCp    
 ------- -------- --------- --------- -------- ------- ------- -------- --------- ---------
  -4.000   0.0310   0.00804   0.00233  -0.1052  0.8073  0.0605  -1.9247   0.0000   0.0000   0.0000   3.7140
  -3.500   0.0872   0.00781   0.00205  -0.1051  0.7863  0.0737  -1.6581   0.0000   0.0000   0.0000   1.4749
  -3.000   0.1431   0.00762   0.00183  -0.1049  0.7628  0.0916  -1.4047   0.0000   0.0000   0.0000   0.9924
  -2.000   0.2550   0.00731   0.00153  -0.1046  0.7137  0.1485  -0.9625   0.0000   0.0000   0.0000   0.6630
  -1.500   0.3108   0.00720   0.00145  -0.1044  0.6873  0.1873  -0.7726   0.0000   0.0000   0.0000   0.5873
  -1.000   0.3661   0.00714   0.00141  -0.1042  0.6599  0.2355  -0.6959   0.0000   0.0000   0.0000   0.5348
  -0.500   0.4215   0.00707   0.00141  -0.1041  0.6332  0.2963  -0.7373   0.0000   0.0000   0.0000   0.4961
   0.000   0.4767   0.00693   0.00144  -0.1039  0.6073  0.3872  -0.7799   0.0000   0.0000   0.0000   0.4666
   0.500   0.5297   0.00644   0.00155  -0.1036  0.5824  0.6312  -0.8229   0.0000   0.0000   0.0000   0.4435
   1.000   0.5771   0.00598   0.00173  -0.1015  0.5600  0.8795  -0.8652   0.0000   0.0000   0.0000   0.4231
   1.500   0.6481   0.00605   0.00182  -0.1044  0.5383  1.0000  -0.9234   0.0000   0.0000   0.0000   0.4079
   2.000   0.7017   0.00627   0.00193  -0.1038  0.5200  1.0000  -0.9740   0.0000   0.0000   0.0000   0.3942
   2.500   0.7557   0.00649   0.00206  -0.1033  0.5036  1.0000  -1.0283   0.0000   0.0000   0.0000   0.3825
   3.000   0.8098   0.00674   0.00222  -0.1029  0.4880  1.0000  -1.0869   0.0000   0.0000   0.0000   0.3723
   3.500   0.8641   0.00699   0.00240  -0.1025  0.4730  1.0000  -1.1509   0.0000   0.0000   0.0000   0.3633
   4.000   0.9189   0.00721   0.00259  -0.1022  0.4590  1.0000  -1.2247   0.0000   0.0000   0.0000   0.3554
   4.500   0.9730   0.00748   0.00281  -0.1018  0.4432  1.0000  -1.3344   0.0000   0.0000   0.0000   0.3483
   5.000   1.0265   0.00778   0.00305  -0.1013  0.4236  1.0000  -1.4989   0.0000   0.0000   0.0000   0.3418
   5.500   1.0794   0.00811   0.00332  -0.1008  0.4009  1.0000  -1.6947   0.0000   0.0000   0.0000   0.3358
   6.000   1.1310   0.00853   0.00364  -0.1000  0.3734  1.0000  -1.9184   0.0000   0.0000   0.0000   0.3303
   6.500   1.1812   0.00903   0.00402  -0.0990  0.3395  1.0000  -2.1627   0.0000   0.0000   0.0000   0.3250
   7.000   1.2282   0.00976   0.00456  -0.0976  0.2963  1.0000  -2.4251   0.0000   0.0000   0.0000   0.3200
   7.500   1.2718   0.01069   0.00524  -0.0956  0.2439  1.0000  -2.6896   0.0000   0.0000   0.0000   0.3150
   8.000   1.3098   0.01197   0.00616  -0.0927  0.1800  1.0000  -2.9769   0.0000   0.0000   0.0000   0.3100
   8.500   1.3449   0.01334   0.00723  -0.0894  0.1261  1.0000  -3.2642   0.0000   0.0000   0.0000   0.3050
   9.000   1.3780   0.01465   0.00832  -0.0858  0.0878  1.0000  -3.5546   0.0000   0.0000   0.0000   0.3001
   9.500   1.4062   0.01593   0.00946  -0.0813  0.0632  1.0000  -3.8370   0.0000   0.0000   0.0000   0.2949
  10.000   1.4367   0.01714   0.01064  -0.0774  0.0494  1.0000  -4.1582   0.0000   0.0000   0.0000   0.2901
  10.500   1.4654   0.01848   0.01197  -0.0735  0.0402  1.0000  -4.4941   0.0000   0.0000   0.0000   0.2856
  11.000   1.4934   0.01993   0.01345  -0.0697  0.0341  1.0000  -4.8353   0.0000   0.0000   0.0000   0.2813
  11.500   1.5182   0.02164   0.01523  -0.0660  0.0294  1.0000  -5.1709   0.0000   0.0000   0.0000   0.2772
  12.000   1.5410   0.02358   0.01722  -0.0623  0.0258  1.0000  -5.5070   0.0000   0.0000   0.0000   0.2733
  12.500   1.5612   0.02587   0.01962  -0.0588  0.0234  1.0000  -5.8321   0.0000   0.0000   0.0000   0.2696
  13.000   1.5810   0.02832   0.02219  -0.0558  0.0215  1.0000  -6.1656   0.0000   0.0000   0.0000   0.2663
  13.500   1.5913   0.03175   0.02573  -0.0526  0.0194  1.0000  -6.4506   0.0000   0.0000   0.0000   0.2630
  14.000   1.5997   0.03561   0.02975  -0.0499  0.0183  1.0000  -6.7245   0.0000   0.0000   0.0000   0.2601


