xflr5 v6.62

 Calculated polar for: naca 2412 2

 1 1 Reynolds number fixed          Mach number fixed         

 xtrf =   1.000 (top)        1.000 (bottom)
 Mach =   0.100     Re =     1.000 e 6     Ncrit =   9.000

  alpha     CL        CD       CDp       Cm    Top Xtr Bot Xtr   Cpmin    Chinge    XCp    
 ------- -------- --------- --------- -------- ------- ------- -------- --------- ---------
  -4.000  -0.1981   0.00774   0.00227  -0.0558  0.8820  0.1115  -1.6519   0.0000   0.0000   0.0000  -0.0413
  -3.500  -0.1431   0.00739   0.00199  -0.0554  0.8604  0.1452  -1.4236   0.0000   0.0000   0.0000  -0.1482
  -3.000  -0.0880   0.00710   0.00176  -0.0550  0.8355  0.1837  -1.2064   0.0000   0.0000   0.0000  -0.3897
  -2.500  -0.0329   0.00682   0.00158  -0.0546  0.8090  0.2346  -1.0074   0.0000   0.0000   0.0000  -1.4401
  -2.000   0.0222   0.00660   0.00143  -0.0543  0.7793  0.2900  -0.8384   0.0000   0.0000   0.0000   2.7312
  -1.500   0.0769   0.00637   0.00131  -0.0539  0.7479  0.3582  -0.6853   0.0000   0.0000   0.0000   0.9568
  -1.000   0.1311   0.00611   0.00123  -0.0535  0.7148  0.4525  -0.5531   0.0000   0.0000   0.0000   0.6594
  -0.500   0.1849   0.00583   0.00121  -0.0529  0.6814  0.5698  -0.5268   0.0000   0.0000   0.0000   0.5360
   0.000   0.2386   0.00564   0.00123  -0.0523  0.6480  0.6741  -0.5709   0.0000   0.0000   0.0000   0.4678
   0.500   0.2919   0.00553   0.00129  -0.0514  0.6146  0.7686  -0.6182   0.0000   0.0000   0.0000   0.4242
   1.000   0.3438   0.00547   0.00140  -0.0502  0.5824  0.8555  -0.6693   0.0000   0.0000   0.0000   0.3932
   1.500   0.3951   0.00555   0.00153  -0.0486  0.5518  0.9245  -0.7260   0.0000   0.0000   0.0000   0.3698
   2.000   0.4526   0.00576   0.00168  -0.0484  0.5221  0.9655  -0.7949   0.0000   0.0000   0.0000   0.3534
   2.500   0.5213   0.00603   0.00183  -0.0510  0.4922  0.9846  -0.8884   0.0000   0.0000   0.0000   0.3439
   3.000   0.5949   0.00632   0.00198  -0.0548  0.4608  0.9940  -1.0186   0.0000   0.0000   0.0000   0.3378
   3.500   0.6712   0.00666   0.00216  -0.0593  0.4256  1.0000  -1.1888   0.0000   0.0000   0.0000   0.3336
   4.000   0.7193   0.00694   0.00233  -0.0577  0.3933  1.0000  -1.3523   0.0000   0.0000   0.0000   0.3250
   4.500   0.7673   0.00728   0.00253  -0.0560  0.3557  1.0000  -1.5405   0.0000   0.0000   0.0000   0.3173
   5.000   0.8142   0.00777   0.00281  -0.0542  0.3095  1.0000  -1.7432   0.0000   0.0000   0.0000   0.3104
   5.500   0.8605   0.00838   0.00320  -0.0523  0.2578  1.0000  -1.9668   0.0000   0.0000   0.0000   0.3042
   6.000   0.9068   0.00911   0.00367  -0.0506  0.2050  1.0000  -2.2218   0.0000   0.0000   0.0000   0.2986
   6.500   0.9530   0.00994   0.00423  -0.0489  0.1537  1.0000  -2.4846   0.0000   0.0000   0.0000   0.2936
   7.000   0.9993   0.01080   0.00486  -0.0472  0.1112  1.0000  -2.7572   0.0000   0.0000   0.0000   0.2890
   7.500   1.0463   0.01161   0.00553  -0.0457  0.0826  1.0000  -3.0723   0.0000   0.0000   0.0000   0.2849
   8.000   1.0928   0.01245   0.00624  -0.0442  0.0625  1.0000  -3.4181   0.0000   0.0000   0.0000   0.2810
   8.500   1.1387   0.01331   0.00702  -0.0426  0.0475  1.0000  -3.7733   0.0000   0.0000   0.0000   0.2773
   9.000   1.1850   0.01409   0.00778  -0.0410  0.0401  1.0000  -4.1440   0.0000   0.0000   0.0000   0.2739
   9.500   1.2301   0.01491   0.00866  -0.0393  0.0344  1.0000  -4.5169   0.0000   0.0000   0.0000   0.2706
  10.000   1.2719   0.01591   0.00965  -0.0371  0.0291  1.0000  -4.8894   0.0000   0.0000   0.0000   0.2671
  10.500   1.3120   0.01694   0.01076  -0.0347  0.0261  1.0000  -5.2615   0.0000   0.0000   0.0000   0.2636
  11.000   1.3511   0.01788   0.01178  -0.0322  0.0239  1.0000  -5.6461   0.0000   0.0000   0.0000   0.2602
  11.500   1.3805   0.01913   0.01309  -0.0281  0.0214  1.0000  -6.0123   0.0000   0.0000   0.0000   0.2560
  12.000   1.3973   0.02120   0.01532  -0.0228  0.0188  1.0000  -6.3471   0.0000   0.0000   0.0000   0.2511
  12.500   1.4289   0.02244   0.01666  -0.0199  0.0183  1.0000  -6.7978   0.0000   0.0000   0.0000   0.2479
  13.000   1.4554   0.02410   0.01843  -0.0168  0.0175  1.0000  -7.2257   0.0000   0.0000   0.0000   0.2446
  13.500   1.4782   0.02616   0.02063  -0.0138  0.0164  1.0000  -7.6396   0.0000   0.0000   0.0000   0.2415
  14.000   1.4961   0.02874   0.02333  -0.0111  0.0153  1.0000  -8.0291   0.0000   0.0000   0.0000   0.2386


