xflr5 v6.62

 Calculated polar for: naca 63215

 1 1 Reynolds number fixed          Mach number fixed         

 xtrf =   1.000 (top)        1.000 (bottom)
 Mach =   0.100     Re =     1.000 e 6     Ncrit =   9.000

  alpha     CL        CD       CDp       Cm    Top Xtr Bot Xtr   Cpmin    Chinge    XCp    
 ------- -------- --------- --------- -------- ------- ------- -------- --------- ---------
  -3.500  -0.4117   0.00721   0.00202   0.0033  0.9942  0.1754  -1.5987   0.0000   0.0000   0.0000   0.2547
  -3.000  -0.3432   0.00648   0.00169   0.0002  0.9883  0.2753  -1.2900   0.0000   0.0000   0.0000   0.2475
  -2.500  -0.2732   0.00582   0.00145  -0.0031  0.9814  0.3851  -0.9933   0.0000   0.0000   0.0000   0.2355
  -2.000  -0.2110   0.00530   0.00127  -0.0045  0.9664  0.4829  -0.7752   0.0000   0.0000   0.0000   0.2259
  -1.500  -0.1548   0.00487   0.00112  -0.0043  0.9426  0.5731  -0.6056   0.0000   0.0000   0.0000   0.2195
  -1.000  -0.1028   0.00456   0.00101  -0.0030  0.9065  0.6556  -0.4792   0.0000   0.0000   0.0000   0.2182
  -0.500  -0.0515   0.00435   0.00095  -0.0015  0.8594  0.7333  -0.3843   0.0000   0.0000   0.0000   0.2184
   0.000   0.0000   0.00429   0.00092   0.0000  0.8009  0.8009  -0.3138   0.0000   0.0000   0.0000  -0.3668
   0.500   0.0515   0.00435   0.00095   0.0015  0.7333  0.8594  -0.3843   0.0000   0.0000   0.0000   0.2185
   1.500   0.1548   0.00487   0.00112   0.0043  0.5731  0.9426  -0.6056   0.0000   0.0000   0.0000   0.2195
   2.000   0.2110   0.00530   0.00127   0.0045  0.4830  0.9665  -0.7752   0.0000   0.0000   0.0000   0.2259
   2.500   0.2732   0.00582   0.00145   0.0031  0.3851  0.9814  -0.9933   0.0000   0.0000   0.0000   0.2355
   3.000   0.3432   0.00648   0.00169  -0.0002  0.2753  0.9883  -1.2900   0.0000   0.0000   0.0000   0.2475
   3.500   0.4117   0.00721   0.00202  -0.0033  0.1754  0.9942  -1.5987   0.0000   0.0000   0.0000   0.2547
   4.000   0.4820   0.00793   0.00239  -0.0068  0.0981  0.9985  -2.0113   0.0000   0.0000   0.0000   0.2606
   4.500   0.5392   0.00853   0.00279  -0.0073  0.0586  1.0000  -2.4091   0.0000   0.0000   0.0000   0.2597
   5.000   0.5868   0.00905   0.00321  -0.0057  0.0396  1.0000  -2.7916   0.0000   0.0000   0.0000   0.2555
   5.500   0.6346   0.00960   0.00374  -0.0040  0.0296  1.0000  -3.1788   0.0000   0.0000   0.0000   0.2518
   6.000   0.6829   0.01018   0.00436  -0.0024  0.0240  1.0000  -3.5816   0.0000   0.0000   0.0000   0.2485
   6.500   0.7290   0.01125   0.00552  -0.0004  0.0188  1.0000  -4.0223   0.0000   0.0000   0.0000   0.2452
   7.000   0.7795   0.01163   0.00592   0.0007  0.0169  1.0000  -4.6144   0.0000   0.0000   0.0000   0.2432
   7.500   0.8283   0.01247   0.00681   0.0021  0.0138  1.0000  -5.1890   0.0000   0.0000   0.0000   0.2412
   8.000   0.8693   0.01480   0.00944   0.0046  0.0121  1.0000  -5.6434   0.0000   0.0000   0.0000   0.2379
   8.500   0.9177   0.01585   0.01062   0.0058  0.0118  1.0000  -6.2702   0.0000   0.0000   0.0000   0.2363
   9.000   0.9650   0.01709   0.01204   0.0071  0.0113  1.0000  -6.9113   0.0000   0.0000   0.0000   0.2347
   9.500   1.0115   0.01840   0.01352   0.0084  0.0105  1.0000  -7.5657   0.0000   0.0000   0.0000   0.2331
  10.000   1.0582   0.01954   0.01479   0.0095  0.0093  1.0000  -8.2552   0.0000   0.0000   0.0000   0.2318
  10.500   1.1038   0.02071   0.01605   0.0107  0.0081  1.0000  -8.9609   0.0000   0.0000   0.0000   0.2304
  11.000   1.0878   0.03070   0.02718   0.0174  0.0069  1.0000  -8.5348   0.0000   0.0000   0.0000   0.2237
  11.500   1.0895   0.03597   0.03294   0.0212  0.0068  1.0000  -8.7064   0.0000   0.0000   0.0000   0.2196
  12.000   1.0567   0.04345   0.04087   0.0239  0.0068  1.0000  -8.5803   0.0000   0.0000   0.0000   0.2157
  12.500   0.9994   0.06128   0.05919   0.0097  0.0069  1.0000  -8.0082   0.0000   0.0000   0.0000   0.2277
  13.500   0.9221   0.09995   0.09822  -0.0153  0.0071  1.0000  -7.0321   0.0000   0.0000   0.0000   0.2530
  14.000   0.8666   0.12175   0.12010  -0.0252  0.0074  1.0000  -6.1272   0.0000   0.0000   0.0000   0.2655


